/*--------------------------------*- C++ -*----------------------------------*\
| =========                 |                                                 |
| \\      /  F ield         | OpenFOAM: The Open Source CFD Toolbox           |
|  \\    /   O peration     | Version:  2.3.0                                 |
|   \\  /    A nd           | Web:      www.OpenFOAM.org                      |
|    \\/     M anipulation  |                                                 |
\*---------------------------------------------------------------------------*/
FoamFile
{
    version     2.0;
    format      ascii;
    class       extendedFeatureEdgeMesh;
    location    "constant/extendedFeatureEdgeMesh";
    object      falcon9.extendedFeatureEdgeMesh;
}
// * * * * * * * * * * * * * * * * * * * * * * * * * * * * * * * * * * * * * //

// points

645
(
(68.1747 0.774093 2.47767)
(61.9246 0.774093 2.47767)
(68.1747 2.72233 0.774093)
(61.9246 2.72233 0.774093)
(61.9246 4.42591 2.72233)
(68.1747 4.42591 2.72233)
(61.553 2.68782 4.47783)
(61.5368 2.67683 4.47545)
(61.5242 2.66419 4.47033)
(69.56 3.48966 4.29515)
(69.5531 3.49422 4.2891)
(69.5653 3.48342 4.29962)
(69.5629 3.48673 4.2976)
(69.5453 3.49675 4.28193)
(69.5682 3.47769 4.30255)
(69.5698 3.47149 4.30574)
(69.57 3.46509 4.30902)
(69.5689 3.45879 4.31225)
(69.5665 3.45287 4.31528)
(69.5628 3.4476 4.31797)
(69.5581 3.44323 4.32021)
(69.5526 3.43994 4.32188)
(68.1473 2.64696 4.72644)
(68.1676 2.71762 4.69025)
(68.2045 2.78121 4.65771)
(68.2558 2.83392 4.63077)
(68.3183 2.87258 4.61104)
(68.1464 2.64055 4.72884)
(68.1455 2.63375 4.72973)
(61.5145 2.65043 4.46436)
(61.507 2.63458 4.45973)
(61.5024 2.61743 4.45685)
(61.5008 2.6 4.45587)
(61.5242 2.53581 4.47033)
(61.5368 2.52317 4.47545)
(61.553 2.51218 4.47783)
(61.5145 2.54957 4.46436)
(61.507 2.56542 4.45973)
(61.5024 2.58257 4.45685)
(69.5531 1.70578 4.2891)
(69.56 1.71034 4.29515)
(69.5453 1.70325 4.28193)
(69.5629 1.71327 4.2976)
(69.5653 1.71658 4.29962)
(69.5682 1.72231 4.30255)
(69.57 1.73491 4.30902)
(69.5698 1.72851 4.30574)
(69.5665 1.74713 4.31528)
(69.5689 1.74121 4.31225)
(69.5581 1.75677 4.32021)
(69.5628 1.7524 4.31797)
(69.5526 1.76006 4.32188)
(68.3183 2.32742 4.61104)
(68.2558 2.36608 4.63077)
(68.2045 2.41879 4.65771)
(68.1676 2.48238 4.69025)
(68.1473 2.55304 4.72644)
(68.1464 2.55945 4.72884)
(68.1455 2.56625 4.72973)
(68.1436 2.6 4.73)
(61.5242 0.728926 2.67486)
(61.5145 0.734892 2.6611)
(61.5024 0.742408 2.6281)
(61.5008 0.74338 2.61067)
(61.507 0.739521 2.64525)
(61.553 0.721424 2.69849)
(61.5368 0.723808 2.68749)
(65.697 0.842229 3.1223)
(61.5909 0.771961 2.71017)
(69.5371 1.0042 3.50772)
(69.56 0.904109 3.50033)
(69.5531 0.910155 3.50489)
(69.5653 0.899637 3.49409)
(69.5629 0.901652 3.4974)
(69.5453 0.917321 3.50741)
(69.5426 1.00423 3.50777)
(69.5619 0.999021 3.49845)
(69.5581 1.00094 3.5019)
(69.5676 0.994273 3.48984)
(69.5651 0.996781 3.4944)
(69.5682 0.896699 3.48836)
(69.5698 0.893517 3.48216)
(69.57 0.988935 3.48002)
(69.5692 0.991615 3.48497)
(69.57 0.890237 3.47576)
(69.5689 0.887009 3.46945)
(69.5674 0.981086 3.46532)
(69.5691 0.983669 3.4702)
(69.5665 0.883978 3.46353)
(69.5628 0.881284 3.45827)
(69.5614 0.976605 3.45678)
(69.5648 0.978695 3.46078)
(69.5581 0.879049 3.45389)
(69.5526 0.877374 3.45061)
(69.5526 0.973402 3.45061)
(69.5574 0.974836 3.45338)
(69.57 0.986321 3.47516)
(69.5534 1.00254 3.50477)
(69.5481 1.00367 3.50678)
(68.1473 0.472819 2.65763)
(68.1676 0.509001 2.72829)
(68.2045 0.541542 2.79188)
(68.2558 0.568487 2.84459)
(68.3183 0.588218 2.88325)
(68.1464 0.470413 2.65122)
(68.1455 0.469521 2.64442)
(68.3183 0.789669 2.88325)
(68.2558 0.568487 2.37675)
(68.3183 0.588218 2.33809)
(68.1676 0.509001 2.49305)
(68.2045 0.541542 2.42946)
(68.1513 0.770495 2.54327)
(68.1436 0.769254 2.61067)
(68.1465 0.769732 2.65251)
(68.1556 0.771181 2.69463)
(68.1708 0.773511 2.73542)
(68.1916 0.776507 2.77343)
(68.2171 0.779863 2.80743)
(68.2464 0.783273 2.83675)
(68.2803 0.786644 2.86235)
(68.1436 0.469254 2.61067)
(68.1455 0.469521 2.57692)
(68.1464 0.470413 2.57012)
(68.1473 0.472819 2.56371)
(61.5909 0.771961 2.51117)
(61.5728 0.771773 2.51468)
(61.5555 0.771425 2.52156)
(61.5398 0.77097 2.53143)
(61.5267 0.770485 2.54355)
(61.5158 0.770008 2.55813)
(61.5075 0.769605 2.57482)
(61.5025 0.769342 2.5927)
(61.5008 0.769254 2.61067)
(61.5025 0.769342 2.62863)
(61.5075 0.769605 2.64651)
(61.5158 0.770008 2.66321)
(61.5267 0.770485 2.67778)
(61.5398 0.77097 2.68991)
(61.5555 0.771425 2.69978)
(61.5728 0.771773 2.70665)
(61.5242 0.728926 2.54648)
(61.5368 0.723808 2.53384)
(61.553 0.721424 2.52285)
(61.5145 0.734892 2.56024)
(61.507 0.739521 2.57609)
(61.5024 0.742408 2.59324)
(69.5531 0.910155 1.71645)
(69.56 0.904109 1.72101)
(69.5453 0.917321 1.71392)
(69.5629 0.901652 1.72394)
(69.5653 0.899637 1.72725)
(69.5698 0.893517 1.73918)
(69.5682 0.896699 1.73297)
(69.5689 0.887009 1.75188)
(69.57 0.890237 1.74558)
(69.5628 0.881284 1.76307)
(69.5665 0.883978 1.7578)
(69.5526 0.877374 1.77072)
(69.5581 0.879049 1.76744)
(61.5242 2.52514 0.728926)
(61.5145 2.5389 0.734892)
(61.5024 2.5719 0.742408)
(61.5008 2.58933 0.74338)
(61.507 2.55475 0.739521)
(61.553 2.50151 0.721424)
(61.5368 2.51251 0.723808)
(65.697 2.0777 0.842229)
(61.5909 2.48983 0.771961)
(69.5371 1.69228 1.0042)
(69.56 1.69967 0.904109)
(69.5531 1.69511 0.910155)
(69.5653 1.70591 0.899637)
(69.5629 1.70261 0.901652)
(69.5453 1.69259 0.917321)
(69.5426 1.69223 1.00423)
(69.5619 1.70155 0.999021)
(69.5581 1.6981 1.00094)
(69.5676 1.71016 0.994273)
(69.5651 1.7056 0.996781)
(69.5682 1.71164 0.896699)
(69.5698 1.71784 0.893517)
(69.57 1.71998 0.988935)
(69.5692 1.71503 0.991615)
(69.57 1.72424 0.890237)
(69.5689 1.73055 0.887009)
(69.5674 1.73468 0.981086)
(69.5691 1.7298 0.983669)
(69.5665 1.73647 0.883978)
(69.5628 1.74173 0.881284)
(69.5614 1.74322 0.976605)
(69.5648 1.73922 0.978695)
(69.5581 1.74611 0.879049)
(69.5526 1.74939 0.877374)
(69.5526 1.74939 0.973402)
(69.5574 1.74662 0.974836)
(69.57 1.72484 0.986321)
(69.5534 1.69523 1.00254)
(69.5481 1.69322 1.00367)
(68.1473 2.54237 0.472819)
(68.1676 2.47171 0.509001)
(68.2045 2.40812 0.541542)
(68.2558 2.35541 0.568487)
(68.3183 2.31675 0.588218)
(68.1464 2.54878 0.470413)
(68.1455 2.55558 0.469521)
(68.3183 2.31675 0.789669)
(68.2558 2.82325 0.568487)
(68.3183 2.86191 0.588218)
(68.1676 2.70695 0.509001)
(68.2045 2.77054 0.541542)
(68.1513 2.65673 0.770495)
(68.1436 2.58933 0.769254)
(68.1465 2.54749 0.769732)
(68.1556 2.50537 0.771181)
(68.1708 2.46458 0.773511)
(68.1916 2.42657 0.776507)
(68.2171 2.39257 0.779863)
(68.2464 2.36325 0.783273)
(68.2803 2.33765 0.786644)
(68.1436 2.58933 0.469254)
(68.1455 2.62308 0.469521)
(68.1464 2.62988 0.470413)
(68.1473 2.63629 0.472819)
(61.5909 2.68883 0.771961)
(61.5728 2.68532 0.771773)
(61.5555 2.67844 0.771425)
(61.5398 2.66857 0.77097)
(61.5267 2.65645 0.770485)
(61.5158 2.64187 0.770008)
(61.5075 2.62518 0.769605)
(61.5025 2.6073 0.769342)
(61.5008 2.58933 0.769254)
(61.5025 2.57137 0.769342)
(61.5075 2.55349 0.769605)
(61.5158 2.53679 0.770008)
(61.5267 2.52222 0.770485)
(61.5398 2.51009 0.77097)
(61.5555 2.50022 0.771425)
(61.5728 2.49335 0.771773)
(61.5242 2.65352 0.728926)
(61.5368 2.66616 0.723808)
(61.553 2.67715 0.721424)
(61.5145 2.63976 0.734892)
(61.507 2.62391 0.739521)
(61.5024 2.60676 0.742408)
(69.5531 3.48355 0.910155)
(69.56 3.47899 0.904109)
(69.5453 3.48608 0.917321)
(69.5629 3.47606 0.901652)
(69.5653 3.47275 0.899637)
(69.5698 3.46082 0.893517)
(69.5682 3.46703 0.896699)
(69.5689 3.44812 0.887009)
(69.57 3.45442 0.890237)
(69.5628 3.43693 0.881284)
(69.5665 3.4422 0.883978)
(69.5526 3.42928 0.877374)
(69.5581 3.43256 0.879049)
(61.5242 4.47107 2.52514)
(61.5145 4.46511 2.5389)
(61.507 4.46048 2.55475)
(61.5024 4.45759 2.5719)
(61.5008 4.45662 2.58933)
(61.5909 4.42804 2.68883)
(61.5242 4.47107 2.65352)
(61.5368 4.47619 2.66616)
(61.553 4.47858 2.67715)
(69.5531 4.28985 3.48355)
(69.56 4.29589 3.47899)
(69.5453 4.28268 3.48608)
(69.5629 4.29835 3.47606)
(69.5653 4.30036 3.47275)
(69.5698 4.30648 3.46082)
(69.5682 4.3033 3.46703)
(69.5689 4.31299 3.44812)
(69.57 4.30976 3.45442)
(69.5628 4.31872 3.43693)
(69.5665 4.31602 3.4422)
(69.5526 4.32263 3.42928)
(69.5581 4.32095 3.43256)
(68.3183 4.61178 2.86191)
(68.2558 4.63151 2.82325)
(68.2045 4.65846 2.77054)
(68.1676 4.691 2.70695)
(68.1473 4.72718 2.63629)
(68.1464 4.72959 2.62988)
(68.1455 4.73048 2.62308)
(61.5024 4.45759 2.60676)
(61.507 4.46048 2.62391)
(61.5145 4.46511 2.63976)
(70.1 0.77 2.6)
(70.1 0.832356 2.12636)
(70.1 4.18483 1.685)
(70.1 4.36764 2.12636)
(70.1 1.01517 1.685)
(70.1 1.30599 1.30599)
(70.1 3.515 1.01517)
(70.1 3.89401 1.30599)
(70.1 1.685 1.01517)
(70.1 2.12636 0.832356)
(70.1 2.6 0.77)
(70.1 3.07364 0.832356)
(70.1 4.43 2.6)
(70.1 0.832356 3.07364)
(70.1 4.36764 3.07364)
(70.1 4.18483 3.515)
(70.1 1.30599 3.89401)
(70.1 1.01517 3.515)
(70.1 3.89401 3.89401)
(70.1 3.515 4.18483)
(70.1 2.12636 4.36764)
(70.1 1.685 4.18483)
(70.1 2.6 4.43)
(70.1 3.07364 4.36764)
(61.553 4.47858 2.50151)
(61.5368 4.47619 2.51251)
(61.5398 4.42903 2.51009)
(61.5267 4.42952 2.52222)
(61.5728 4.42823 2.49335)
(61.5555 4.42858 2.50022)
(61.5909 4.42804 2.48983)
(61.5158 4.42999 2.53679)
(61.5075 4.4304 2.55349)
(61.5025 4.43066 2.57137)
(61.5008 4.43075 2.58933)
(61.5025 4.43066 2.6073)
(61.5075 4.4304 2.62518)
(61.5158 4.42999 2.64187)
(61.5267 4.42952 2.65645)
(61.5398 4.42903 2.66857)
(61.5555 4.42858 2.67844)
(61.5728 4.42823 2.68532)
(65.697 4.35777 2.0777)
(69.5371 4.1958 1.69228)
(69.56 4.29589 1.69967)
(69.5531 4.28985 1.69511)
(69.5653 4.30036 1.70591)
(69.5629 4.29835 1.70261)
(69.5453 4.28268 1.69259)
(69.5426 4.19577 1.69223)
(69.5619 4.20098 1.70155)
(69.5581 4.19906 1.6981)
(69.5676 4.20573 1.71016)
(69.5651 4.20322 1.7056)
(69.5682 4.3033 1.71164)
(69.5698 4.30648 1.71784)
(69.57 4.21106 1.71998)
(69.5692 4.20839 1.71503)
(69.57 4.30976 1.72424)
(69.5689 4.31299 1.73055)
(69.5674 4.21891 1.73468)
(69.5691 4.21633 1.7298)
(69.5665 4.31602 1.73647)
(69.5628 4.31872 1.74173)
(69.5614 4.2234 1.74322)
(69.5648 4.2213 1.73922)
(69.5581 4.32095 1.74611)
(69.5526 4.32263 1.74939)
(69.5526 4.2266 1.74939)
(69.5574 4.22516 1.74662)
(69.57 4.21368 1.72484)
(69.5534 4.19746 1.69523)
(69.5481 4.19633 1.69322)
(68.1473 4.72718 2.54237)
(68.1676 4.691 2.47171)
(68.2045 4.65846 2.40812)
(68.2558 4.63151 2.35541)
(68.3183 4.61178 2.31675)
(68.1464 4.72959 2.54878)
(68.1455 4.73048 2.55558)
(68.1436 4.73075 2.58933)
(68.3183 4.41033 2.31675)
(68.1556 4.42882 2.50537)
(68.1465 4.43027 2.54749)
(68.2803 4.41336 2.33765)
(68.2464 4.41673 2.36325)
(68.2171 4.42014 2.39257)
(68.1916 4.42349 2.42657)
(68.1708 4.42649 2.46458)
(68.1436 4.43075 2.58933)
(68.1513 4.4295 2.65673)
(61.8739 2.60308 4.67514)
(61.8719 2.59555 4.67404)
(61.8745 2.61067 4.67549)
(61.8687 2.58864 4.67226)
(61.8645 2.58277 4.66993)
(61.8591 2.57768 4.66693)
(61.8532 2.57407 4.66365)
(61.8465 2.57175 4.65994)
(61.8398 2.57099 4.65617)
(61.8331 2.57175 4.6524)
(61.8264 2.57407 4.64866)
(61.8205 2.57768 4.64535)
(61.8152 2.58276 4.64231)
(61.811 2.58864 4.63994)
(61.8078 2.59554 4.63812)
(61.8058 2.60307 4.63699)
(61.8052 2.61067 4.63662)
(61.8058 2.61827 4.63699)
(61.8078 2.62581 4.63811)
(61.811 2.63272 4.63993)
(61.8151 2.6386 4.6423)
(61.8205 2.6437 4.64534)
(61.8264 2.64731 4.64865)
(61.8331 2.64964 4.6524)
(61.8398 2.65039 4.65617)
(61.8465 2.64963 4.65994)
(61.8532 2.64731 4.66366)
(61.8591 2.64369 4.66694)
(61.8645 2.6386 4.66994)
(61.8687 2.63272 4.67226)
(61.8719 2.6258 4.67405)
(61.8739 2.61826 4.67514)
(65.697 3.11163 4.35702)
(61.5909 2.6995 4.42729)
(69.5371 3.49705 4.19505)
(69.5426 3.4971 4.19503)
(69.5619 3.4878 4.20022)
(69.558 3.49125 4.1983)
(69.5676 3.4792 4.20496)
(69.5651 3.48376 4.20245)
(69.57 3.46937 4.21031)
(69.5692 3.47432 4.20763)
(69.5674 3.45465 4.21817)
(69.5691 3.45953 4.21558)
(69.5615 3.44613 4.22264)
(69.5648 3.45011 4.22056)
(69.5526 3.43994 4.22585)
(69.5574 3.44271 4.22442)
(69.57 3.46451 4.21293)
(69.5534 3.49411 4.1967)
(69.5481 3.49611 4.19558)
(68.3183 2.87258 4.40958)
(61.5728 2.50401 4.42748)
(61.5909 2.5005 4.42729)
(61.5398 2.52076 4.42828)
(61.5555 2.51089 4.42783)
(61.5158 2.54746 4.42925)
(61.5267 2.53288 4.42877)
(61.5025 2.58203 4.42991)
(61.5075 2.56416 4.42965)
(61.5025 2.61797 4.42991)
(61.5008 2.6 4.43)
(61.5158 2.65254 4.42925)
(61.5075 2.63584 4.42965)
(61.5398 2.67924 4.42828)
(61.5267 2.66712 4.42877)
(61.5728 2.69599 4.42748)
(61.5555 2.68911 4.42783)
(65.697 2.08837 4.35702)
(69.5371 1.70295 4.19505)
(69.5619 1.7122 4.20022)
(69.5651 1.71624 4.20245)
(69.5426 1.7029 4.19503)
(69.5481 1.70389 4.19558)
(69.5534 1.70589 4.1967)
(69.558 1.70875 4.1983)
(69.5676 1.7208 4.20496)
(69.5692 1.72568 4.20763)
(69.57 1.73063 4.21031)
(69.57 1.73549 4.21293)
(69.5691 1.74047 4.21558)
(69.5674 1.74535 4.21817)
(69.5648 1.74989 4.22056)
(69.5615 1.75387 4.22264)
(69.5574 1.75729 4.22442)
(69.5526 1.76006 4.22585)
(68.3183 2.32742 4.40958)
(68.1557 2.51577 4.42806)
(68.1465 2.55822 4.42952)
(68.2158 2.40474 4.41955)
(68.1911 2.43795 4.42281)
(68.281 2.34791 4.41255)
(68.2462 2.3741 4.416)
(68.1709 2.475 4.42573)
(68.1436 2.6 4.43)
(68.1465 2.64178 4.42952)
(68.1557 2.68423 4.42806)
(68.1709 2.725 4.42573)
(68.1911 2.76205 4.42281)
(68.2158 2.79526 4.41955)
(68.2462 2.8259 4.416)
(68.281 2.85209 4.41255)
(61.8052 0.563384 2.61067)
(61.8058 0.563014 2.61827)
(61.8078 0.561889 2.62581)
(61.811 0.560067 2.63272)
(61.8151 0.557699 2.6386)
(61.8205 0.55466 2.6437)
(61.8264 0.551345 2.64731)
(61.8331 0.547604 2.64964)
(61.8398 0.543833 2.65039)
(61.8465 0.540062 2.64963)
(61.8532 0.536343 2.64731)
(61.8591 0.533061 2.64369)
(61.8645 0.530062 2.6386)
(61.8687 0.527736 2.63272)
(61.8719 0.525952 2.6258)
(61.8739 0.52486 2.61826)
(61.8745 0.524512 2.61067)
(68.3183 0.78884 2.33809)
(68.2734 0.785327 2.36365)
(68.2334 0.78134 2.39659)
(68.2011 0.777534 2.43411)
(65.8543 0.844472 2.08326)
(69.5371 0.998993 1.71362)
(69.5426 0.999019 1.71357)
(69.5481 0.998473 1.71456)
(69.5534 0.997368 1.71656)
(69.558 0.995795 1.71942)
(69.5619 0.993908 1.72286)
(69.5651 0.991705 1.72691)
(69.5676 0.989235 1.73147)
(69.5692 0.986616 1.73635)
(69.57 0.983975 1.7413)
(69.57 0.981399 1.74617)
(69.5691 0.978785 1.75114)
(69.5674 0.976241 1.75602)
(69.5648 0.973887 1.76056)
(69.5614 0.97183 1.76456)
(69.5574 0.97009 1.76796)
(69.5526 0.968681 1.77072)
(61.8739 0.524864 2.60308)
(61.8719 0.525959 2.59555)
(61.8687 0.527744 2.58864)
(61.8645 0.53007 2.58277)
(61.8591 0.533068 2.57768)
(61.8532 0.536349 2.57407)
(61.8465 0.540065 2.57175)
(61.8398 0.543832 2.57099)
(61.8331 0.547601 2.57175)
(61.8264 0.55134 2.57407)
(61.8205 0.554652 2.57768)
(61.8152 0.557691 2.58276)
(61.811 0.560058 2.58864)
(61.8078 0.561882 2.59554)
(61.8058 0.56301 2.60307)
(61.8052 2.58933 0.563384)
(61.8058 2.58173 0.563014)
(61.8078 2.57419 0.561889)
(61.811 2.56728 0.560067)
(61.8151 2.5614 0.557699)
(61.8205 2.5563 0.55466)
(61.8264 2.55269 0.551345)
(61.8331 2.55036 0.547604)
(61.8398 2.54961 0.543833)
(61.8465 2.55037 0.540062)
(61.8532 2.55269 0.536343)
(61.8591 2.55631 0.533061)
(61.8645 2.5614 0.530062)
(61.8687 2.56728 0.527736)
(61.8719 2.5742 0.525952)
(61.8739 2.58174 0.52486)
(61.8745 2.58933 0.524512)
(68.3183 2.86191 0.78884)
(68.2734 2.83635 0.785327)
(68.2334 2.80341 0.78134)
(68.2011 2.76589 0.777534)
(65.8543 3.11674 0.844472)
(69.5371 3.48638 0.998993)
(69.5426 3.48643 0.999019)
(69.5481 3.48545 0.998476)
(69.5533 3.48346 0.997377)
(69.558 3.4806 0.995806)
(69.5619 3.47715 0.993916)
(69.5651 3.47312 0.991721)
(69.5676 3.46856 0.989252)
(69.5692 3.46367 0.986628)
(69.57 3.45871 0.983983)
(69.57 3.45384 0.981405)
(69.5691 3.44886 0.978787)
(69.5674 3.44398 0.976238)
(69.5648 3.43943 0.973885)
(69.5614 3.43545 0.971835)
(69.5574 3.43204 0.970089)
(69.5526 3.42928 0.968681)
(61.8739 2.59692 0.524864)
(61.8719 2.60445 0.525959)
(61.8687 2.61136 0.527744)
(61.8645 2.61723 0.53007)
(61.8591 2.62232 0.533068)
(61.8532 2.62593 0.536349)
(61.8465 2.62825 0.540065)
(61.8398 2.62901 0.543832)
(61.8331 2.62825 0.547601)
(61.8264 2.62593 0.55134)
(61.8205 2.62232 0.554652)
(61.8152 2.61724 0.557691)
(61.811 2.61136 0.560058)
(61.8078 2.60446 0.561882)
(61.8058 2.59693 0.56301)
(61.8058 4.63699 2.58173)
(61.8052 4.63662 2.58933)
(61.8078 4.63811 2.57419)
(61.8058 4.63699 2.59693)
(61.8078 4.63812 2.60446)
(61.811 4.63994 2.61136)
(61.8152 4.64231 2.61724)
(61.8205 4.64535 2.62232)
(61.8264 4.64866 2.62593)
(61.8331 4.6524 2.62825)
(61.8398 4.65617 2.62901)
(61.8465 4.65994 2.62825)
(61.8532 4.66365 2.62593)
(61.8591 4.66693 2.62232)
(61.8645 4.66993 2.61723)
(61.8687 4.67226 2.61136)
(61.8719 4.67404 2.60445)
(61.8739 4.67514 2.59692)
(61.8745 4.67549 2.58933)
(61.8739 4.67514 2.58174)
(61.8719 4.67405 2.5742)
(61.8687 4.67226 2.56728)
(61.8645 4.66994 2.5614)
(61.8591 4.66694 2.55631)
(61.8532 4.66366 2.55269)
(61.8465 4.65994 2.55037)
(61.8398 4.65617 2.54961)
(61.8331 4.6524 2.55036)
(61.8264 4.64865 2.55269)
(61.8205 4.64534 2.5563)
(61.8151 4.6423 2.5614)
(61.811 4.63993 2.56728)
(65.8543 4.35553 3.11674)
(69.5371 4.20101 3.48638)
(69.5426 4.20098 3.48643)
(69.5481 4.20152 3.48545)
(69.5533 4.20262 3.48346)
(69.558 4.20419 3.4806)
(69.5619 4.20608 3.47715)
(69.5651 4.20828 3.47312)
(69.5676 4.21075 3.46856)
(69.5692 4.21337 3.46367)
(69.57 4.21602 3.45871)
(69.57 4.21859 3.45384)
(69.5691 4.22121 3.44886)
(69.5674 4.22376 3.44398)
(69.5648 4.22612 3.43943)
(69.5614 4.22816 3.43545)
(69.5574 4.22991 3.43204)
(69.5526 4.23132 3.42928)
(68.3183 4.41116 2.86191)
(68.2011 4.42247 2.76589)
(68.2334 4.41866 2.80341)
(68.2734 4.41467 2.83635)
)

// edges

640
(
(6 7)
(7 8)
(9 10)
(11 12)
(12 9)
(10 13)
(14 15)
(16 17)
(18 19)
(20 21)
(19 20)
(17 18)
(15 16)
(11 14)
(22 23)
(23 24)
(24 25)
(25 26)
(26 21)
(27 22)
(28 27)
(8 29)
(29 30)
(31 32)
(30 31)
(33 34)
(34 35)
(36 37)
(38 32)
(37 38)
(33 36)
(39 40)
(41 39)
(40 42)
(42 43)
(44 43)
(45 46)
(47 48)
(49 50)
(51 49)
(50 47)
(48 45)
(46 44)
(51 52)
(52 53)
(53 54)
(54 55)
(55 56)
(56 57)
(57 58)
(59 28)
(58 59)
(60 61)
(62 63)
(64 62)
(61 64)
(65 66)
(66 60)
(67 68)
(69 67)
(70 71)
(72 73)
(73 70)
(71 74)
(75 69)
(76 77)
(78 79)
(80 81)
(82 83)
(84 85)
(86 87)
(88 89)
(90 91)
(92 93)
(94 95)
(95 90)
(89 92)
(91 86)
(85 88)
(87 96)
(96 82)
(81 84)
(83 78)
(72 80)
(79 76)
(77 97)
(97 98)
(98 75)
(99 100)
(100 101)
(101 102)
(102 103)
(103 93)
(104 99)
(105 104)
(106 94)
(107 108)
(109 110)
(111 112)
(112 113)
(113 114)
(114 115)
(116 117)
(117 118)
(119 106)
(105 120)
(120 121)
(121 122)
(122 123)
(123 109)
(0 111)
(110 107)
(115 116)
(118 119)
(1 124)
(124 125)
(125 126)
(126 127)
(127 128)
(128 129)
(130 131)
(131 132)
(132 133)
(133 134)
(134 135)
(136 137)
(137 138)
(138 139)
(139 68)
(129 130)
(135 136)
(140 141)
(141 142)
(143 144)
(145 63)
(144 145)
(140 143)
(146 147)
(148 146)
(147 149)
(149 150)
(151 152)
(153 154)
(155 156)
(157 158)
(158 155)
(156 153)
(154 151)
(152 150)
(157 108)
(159 160)
(161 162)
(163 161)
(160 163)
(164 165)
(165 159)
(166 167)
(168 166)
(169 170)
(171 172)
(172 169)
(170 173)
(174 168)
(175 176)
(177 178)
(179 180)
(181 182)
(183 184)
(185 186)
(187 188)
(189 190)
(191 192)
(193 194)
(194 189)
(188 191)
(190 185)
(184 187)
(186 195)
(195 181)
(180 183)
(182 177)
(171 179)
(178 175)
(176 196)
(196 197)
(197 174)
(198 199)
(199 200)
(200 201)
(201 202)
(202 192)
(203 198)
(204 203)
(205 193)
(206 207)
(208 209)
(210 211)
(211 212)
(212 213)
(213 214)
(215 216)
(216 217)
(218 205)
(204 219)
(219 220)
(220 221)
(221 222)
(222 208)
(2 210)
(209 206)
(214 215)
(217 218)
(3 223)
(223 224)
(224 225)
(225 226)
(226 227)
(227 228)
(229 230)
(230 231)
(231 232)
(232 233)
(233 234)
(235 236)
(236 237)
(237 238)
(238 167)
(228 229)
(234 235)
(239 240)
(240 241)
(242 243)
(244 162)
(243 244)
(239 242)
(245 246)
(247 245)
(246 248)
(248 249)
(250 251)
(252 253)
(254 255)
(256 257)
(257 254)
(255 252)
(253 250)
(251 249)
(256 207)
(258 259)
(260 261)
(261 262)
(259 260)
(263 4)
(264 265)
(265 266)
(267 268)
(269 267)
(268 270)
(270 271)
(272 273)
(274 275)
(276 277)
(278 279)
(279 276)
(277 274)
(275 272)
(273 271)
(278 280)
(280 281)
(281 282)
(282 283)
(283 284)
(284 285)
(285 286)
(287 288)
(262 287)
(288 289)
(289 264)
(290 291)
(292 293)
(294 295)
(296 297)
(298 299)
(300 301)
(299 300)
(301 296)
(295 298)
(297 292)
(291 294)
(293 302)
(303 290)
(304 305)
(306 307)
(308 309)
(310 311)
(312 310)
(313 312)
(309 313)
(311 306)
(305 308)
(307 303)
(302 304)
(314 315)
(315 258)
(316 317)
(318 319)
(320 318)
(319 316)
(317 321)
(322 323)
(324 325)
(326 327)
(328 329)
(330 331)
(331 263)
(329 330)
(327 328)
(325 326)
(323 324)
(321 322)
(332 320)
(333 332)
(334 335)
(336 337)
(337 334)
(335 338)
(339 333)
(340 341)
(342 343)
(344 345)
(346 347)
(348 349)
(350 351)
(352 353)
(354 355)
(356 357)
(358 359)
(359 354)
(353 356)
(355 350)
(349 352)
(351 360)
(360 346)
(345 348)
(347 342)
(336 344)
(343 340)
(341 361)
(361 362)
(362 339)
(363 364)
(364 365)
(365 366)
(366 367)
(367 357)
(368 363)
(369 368)
(370 369)
(286 370)
(371 358)
(372 373)
(371 374)
(374 375)
(375 376)
(376 377)
(377 378)
(378 372)
(373 379)
(379 380)
(380 5)
(381 382)
(383 381)
(382 384)
(384 385)
(385 386)
(386 387)
(387 388)
(389 390)
(390 391)
(391 392)
(392 393)
(393 394)
(395 396)
(396 397)
(394 395)
(388 389)
(397 398)
(398 399)
(399 400)
(400 401)
(401 402)
(402 403)
(403 404)
(405 406)
(406 407)
(407 408)
(408 409)
(409 410)
(411 412)
(412 383)
(410 411)
(404 405)
(413 414)
(415 413)
(416 415)
(417 418)
(419 420)
(421 422)
(423 424)
(425 426)
(427 428)
(428 425)
(426 423)
(424 429)
(429 421)
(422 419)
(420 417)
(418 430)
(430 431)
(431 416)
(432 427)
(433 434)
(435 436)
(437 438)
(439 440)
(441 442)
(443 444)
(445 446)
(447 448)
(414 447)
(448 445)
(446 443)
(444 441)
(442 439)
(440 437)
(438 435)
(436 433)
(449 450)
(434 449)
(451 452)
(453 454)
(450 453)
(454 455)
(455 456)
(456 451)
(452 457)
(458 459)
(459 460)
(461 462)
(463 464)
(465 466)
(464 465)
(462 463)
(457 458)
(460 461)
(466 467)
(468 469)
(470 471)
(467 472)
(472 473)
(473 470)
(471 474)
(474 468)
(469 475)
(475 476)
(476 477)
(477 478)
(479 480)
(480 481)
(482 432)
(478 479)
(481 482)
(483 484)
(484 485)
(485 486)
(486 487)
(487 488)
(488 489)
(490 491)
(491 492)
(492 493)
(493 494)
(494 495)
(495 496)
(496 497)
(497 498)
(498 499)
(489 490)
(500 501)
(502 503)
(503 0)
(501 502)
(0 1)
(1 504)
(504 505)
(505 506)
(507 508)
(508 509)
(510 511)
(512 513)
(514 515)
(515 516)
(517 518)
(519 520)
(520 521)
(518 519)
(516 517)
(513 514)
(511 512)
(509 510)
(506 507)
(499 522)
(522 523)
(523 524)
(524 525)
(525 526)
(526 527)
(527 528)
(528 529)
(530 531)
(531 532)
(532 533)
(533 534)
(534 535)
(535 536)
(536 483)
(529 530)
(521 500)
(537 538)
(538 539)
(539 540)
(540 541)
(541 542)
(542 543)
(544 545)
(545 546)
(546 547)
(547 548)
(548 549)
(549 550)
(550 551)
(551 552)
(552 553)
(543 544)
(554 555)
(556 557)
(557 2)
(555 556)
(2 3)
(3 558)
(558 559)
(559 560)
(561 562)
(562 563)
(564 565)
(566 567)
(568 569)
(569 570)
(571 572)
(573 574)
(574 575)
(572 573)
(570 571)
(567 568)
(565 566)
(563 564)
(560 561)
(553 576)
(576 577)
(577 578)
(578 579)
(579 580)
(580 581)
(581 582)
(582 583)
(584 585)
(585 586)
(586 587)
(587 588)
(588 589)
(589 590)
(590 537)
(583 584)
(575 554)
(591 592)
(593 591)
(594 595)
(596 597)
(597 598)
(599 600)
(600 601)
(602 603)
(604 605)
(605 606)
(607 608)
(608 609)
(610 611)
(612 613)
(613 614)
(615 616)
(616 617)
(618 619)
(620 621)
(621 622)
(592 594)
(595 596)
(598 599)
(601 602)
(603 604)
(606 607)
(609 610)
(611 612)
(614 615)
(617 618)
(619 620)
(622 593)
(4 623)
(623 624)
(624 625)
(626 627)
(627 628)
(629 630)
(631 632)
(633 634)
(634 635)
(636 637)
(638 639)
(639 640)
(637 638)
(635 636)
(632 633)
(630 631)
(628 629)
(625 626)
(640 641)
(4 5)
(5 642)
(642 643)
(643 644)
(644 641)
)

// concaveStart mixedStart nonFeatureStart
0 0 6
// internalStart flatStart openStart multipleStart
402 640 640 640
// normals

1249
(
(-0.4652643 0.5328085 0.7068552)
(-0.562019 0.8270986 0.006532161)
(-0.5212438 0.1818612 0.8338054)
(-0.709628 0.7045417 0.00700573)
(-0.04565906 0.7720105 0.6339677)
(0.5500743 0.8351124 0.002357212)
(-0.008865598 0.5162545 0.8563893)
(0.8091019 0.5876683 0.0004059011)
(-0.02392187 0.6272593 0.778443)
(0.7106457 0.7035499 0.0004353191)
(-0.07159989 0.913609 0.4002401)
(0.3062513 0.9519464 0.002873282)
(0.9680344 0.2508142 0.0012879)
(-0.003261569 0.4568413 0.8895422)
(0.9851941 -0.1714414 0.0007091318)
(-0.002392889 0.4565719 0.8896833)
(0.8188917 -0.5739445 0.002014607)
(7.472014e-05 0.454571 0.8907105)
(0.5134954 -0.8580918 0.0009363507)
(-0.007515762 0.4625587 0.8865568)
(0.6814626 -0.7318501 0.002012544)
(0.926869 -0.375381 0.001711881)
(-0.001786055 0.4561566 0.8898977)
(0.999497 0.03168354 0.001373729)
(-0.001492184 0.4560789 0.8899381)
(0.8919787 0.4520749 0.001485549)
(0.0007326776 0.455536 0.8902171)
(-0.001143116 0.4561197 0.8899177)
(0.9599997 -0.2798886 -0.007934528)
(-0.001142206 0.4560605 0.889948)
(0.8631313 -0.5049155 -0.008043248)
(-0.001141184 0.4559801 0.8899892)
(0.7147275 -0.6993644 -0.007349149)
(-0.001142491 0.4560367 0.8899602)
(0.5236358 -0.851878 -0.01046171)
(-0.001143135 0.4560579 0.8899494)
(0.4176519 -0.9086071 0)
(-0.0008450114 0.3507311 0.9364758)
(0.9902686 -0.1391694 -0.000243758)
(-0.0002709264 0.1298485 0.9915338)
(0.9913459 -0.1312755 -0.0002109627)
(-0.5224227 -0.001644267 0.852685)
(-0.8181681 0.5749634 0.004240689)
(-0.5233177 -0.001308828 0.8521366)
(-0.904239 0.4270171 0.002865277)
(-0.5347134 0.001527035 0.8450321)
(-0.9958218 0.09131806 0)
(-0.9659196 0.258837 0.001632329)
(-0.5212438 -0.1818612 0.8338054)
(-0.709628 -0.7045417 0.00700573)
(-0.4652643 -0.5328085 0.7068552)
(-0.562019 -0.8270986 0.006532161)
(-0.9042362 -0.4270231 0.00286219)
(-0.5233178 0.001308816 0.8521366)
(-0.9958217 -0.0913193 -0)
(-0.5347136 -0.001527077 0.845032)
(-0.9659205 -0.2588337 0.001632258)
(-0.8181681 -0.5749634 0.004240689)
(-0.5224227 0.00164428 0.8526851)
(-0.04565906 -0.7720105 0.6339677)
(0.5500743 -0.8351124 0.002357212)
(-0.07160099 -0.9136142 0.400228)
(0.3062364 -0.9519512 0.002875391)
(-0.02392187 -0.6272593 0.778443)
(0.7106453 -0.7035503 0.0004361882)
(-0.008867259 -0.5162672 0.8563816)
(0.8090922 -0.5876816 0.0004045255)
(0.8919787 -0.4520749 0.001485549)
(0.0007326776 -0.455536 0.8902171)
(0.999497 -0.03168296 0.001373742)
(-0.001477449 -0.4560726 0.8899414)
(0.9268664 0.3753875 0.001711737)
(-0.00179977 -0.4561683 0.8898917)
(0.6814629 0.7318499 0.002013452)
(-0.007515762 -0.4625587 0.8865568)
(0.5134954 0.8580918 0.0009363507)
(0.8188917 0.5739445 0.002014607)
(7.472014e-05 -0.454571 0.8907105)
(0.9851941 0.1714413 0.0007093441)
(-0.002388709 -0.4565713 0.8896836)
(0.9680344 -0.2508142 0.0012879)
(-0.003261569 -0.4568413 0.8895422)
(-0.001143133 -0.4560578 0.8899494)
(0.417652 0.9086071 0)
(-0.001142491 -0.4560367 0.8899602)
(0.5236355 0.8518781 -0.01046268)
(-0.001141184 -0.4559801 0.8899892)
(0.7147275 0.6993644 -0.007349149)
(-0.001142224 -0.4560619 0.8899473)
(0.8631304 0.5049171 -0.008043584)
(-0.001143113 -0.4561184 0.8899183)
(0.96 0.2798876 -0.007934404)
(-0.0008450504 -0.3507425 0.9364715)
(0.9902678 0.1391745 -0.0002437791)
(-0.0002709179 -0.1298441 0.9915344)
(0.9914574 0.130162 0.008372371)
(1.160859e-05 0.007995813 0.999968)
(0.9984196 -0.05619892 0)
(1.160844e-05 -0.00799587 0.999968)
(0.9984196 0.05619932 0)
(-0.5220665 -0.852903 -0.00174246)
(-0.8181674 -0.004240105 0.5749644)
(-0.5376122 -0.8431891 0.002277109)
(-0.9958217 0 0.0913193)
(-0.9659168 -0.001536681 0.2588481)
(-0.523237 -0.8521862 -0.001303874)
(-0.9042361 -0.002861856 0.4270234)
(-0.4654146 -0.7072122 0.5322032)
(-0.5623835 -0.006672952 0.8268496)
(-0.5212385 -0.8337474 0.1821417)
(-0.7093233 -0.00687614 0.7048498)
(-0.09986871 1.74605e-05 0.9950006)
(0.002315826 0.9816939 -0.1904514)
(-0.09986538 0 0.995001)
(0.01034385 0.8808716 -0.4732423)
(-0.04563001 -0.6341835 0.771835)
(0.5498312 -0.002755726 0.8352713)
(-0.008745634 -0.856947 0.5153304)
(0.8091352 -0.0002226249 0.5876225)
(-0.02406743 -0.7776103 0.6282857)
(0.7107057 -0.0002911128 0.7034894)
(-0.07167733 -0.3994068 0.9139675)
(0.3050868 -0.002943222 0.95232)
(-0.009101565 0 0.9999586)
(-0.0002591164 0.8697969 -0.4934099)
(0.6725639 0.001196239 0.7400381)
(0.001360808 0.8745394 -0.4849525)
(0.8773451 0.0002604809 0.4798598)
(0.003940093 0.8771188 -0.4802574)
(0.9680389 -0.001236326 0.2507969)
(-0.001745221 -0.8898483 0.4562532)
(0.9872843 0.001512649 0.1589573)
(0.00829795 0.8799179 -0.4750533)
(0.9852386 -0.0006935246 -0.1711853)
(-0.0001937949 -0.8902583 0.455456)
(0.9441554 0.0006192796 -0.3294998)
(0.01004564 0.8823312 -0.4705218)
(0.8183724 -0.001986257 -0.5746848)
(-0.002457469 -0.8893472 0.4572259)
(0.7621286 0.001042058 -0.6474248)
(0.005175691 0.8844861 -0.4665379)
(0.5123544 -0.0008585752 -0.8587737)
(0.0005517107 -0.8909759 0.4540502)
(0.4993429 0 -0.8664044)
(0.004234511 0.8850455 -0.4654853)
(0.6476743 0.0006379116 -0.761917)
(0.6821507 -0.001439174 -0.7312102)
(0.8673903 0.001131641 -0.4976271)
(0.008718934 0.8826989 -0.4698581)
(0.9268569 -0.001672539 -0.375411)
(-0.001143011 -0.8899244 0.4561067)
(0.9840265 -0.001111827 -0.1780184)
(0.01031163 0.8810277 -0.4729523)
(1 0 -0)
(0.00981548 0.8806547 -0.473657)
(0.9994972 -0.001367351 0.03167907)
(-0.001291149 -0.8899494 0.4560574)
(0.9500965 0.00113678 0.3119541)
(0.006000651 0.8785813 -0.4775551)
(0.8920144 -0.001346433 0.452005)
(-0.0007751681 -0.8900121 0.4559362)
(0.7845936 0.001367542 0.6200088)
(0.002604509 0.875942 -0.4824094)
(0.5210493 -0.0005701962 0.8535264)
(0.001176963 0.8742589 -0.4854586)
(0.3548984 7.056688e-05 0.9349049)
(0.0001505249 0.8718498 -0.4897733)
(0.1772958 0.001432915 0.9841566)
(-0.001142799 -0.8899594 0.4560384)
(0.95999 0.00800489 -0.2799199)
(-0.001142977 -0.8899407 0.4560748)
(0.8631962 0.007757502 -0.504809)
(-0.001142659 -0.8899535 0.4560498)
(0.7145963 0.007849131 -0.6994931)
(-0.001142741 -0.8899517 0.4560534)
(0.5236144 0.0105525 -0.85189)
(-0.001142695 -0.8899525 0.4560518)
(0.4176519 0 -0.9086071)