/*--------------------------------*- C++ -*----------------------------------*\
| =========                 |                                                 |
| \\      /  F ield         | OpenFOAM: The Open Source CFD Toolbox           |
|  \\    /   O peration     | Version:  2.3.0                                 |
|   \\  /    A nd           | Web:      www.OpenFOAM.org                      |
|    \\/     M anipulation  |                                                 |
\*---------------------------------------------------------------------------*/
FoamFile
{
    version     2.0;
    format      ascii;
    class       extendedFeatureEdgeMesh;
    location    "constant/extendedFeatureEdgeMesh";
    object      falcon9m.extendedFeatureEdgeMesh;
}
// * * * * * * * * * * * * * * * * * * * * * * * * * * * * * * * * * * * * * //

// points

24
(
(70.1 1.01517 1.685)
(70.1 0.832356 2.12636)
(70.1 1.685 1.01517)
(70.1 1.30599 1.30599)
(70.1 2.6 0.77)
(70.1 2.12636 0.832356)
(70.1 3.515 1.01517)
(70.1 3.07364 0.832356)
(70.1 4.18483 1.685)
(70.1 3.89401 1.30599)
(70.1 4.43 2.6)
(70.1 4.36764 2.12636)
(70.1 4.18483 3.515)
(70.1 4.36764 3.07364)
(70.1 3.515 4.18483)
(70.1 3.89401 3.89401)
(70.1 2.6 4.43)
(70.1 3.07364 4.36764)
(70.1 1.685 4.18483)
(70.1 2.12636 4.36764)
(70.1 1.01517 3.515)
(70.1 1.30599 3.89401)
(70.1 0.77 2.6)
(70.1 0.832356 3.07364)
)

// edges

24
(
(0 1)
(2 3)
(4 5)
(6 7)
(8 9)
(10 11)
(12 13)
(14 15)
(16 17)
(18 19)
(20 21)
(22 23)
(23 20)
(21 18)
(19 16)
(17 14)
(15 12)
(13 10)
(11 8)
(9 6)
(7 4)
(5 2)
(3 0)
(1 22)
)

// concaveStart mixedStart nonFeatureStart
0 0 0
// internalStart flatStart openStart multipleStart
24 24 24 24
// normals

46
(
(-0 -0.923882 -0.3826775)
(1 0 -0)
(-0 -0.6087554 -0.793358)
(1 0 -0)
(-0 -0.1305264 -0.9914448)
(1 -0 0)
(0 0.3826775 -0.923882)
(1 0 -0)
(0 0.7933578 -0.6087556)
(1 0 -0)
(0 0.9914438 -0.1305343)
(1 0 -0)
(0 0.9238851 0.3826701)
(1 0 0)
(0 0.6087556 0.7933578)
(1 0 0)
(0 0.1305342 0.9914438)
(1 0 0)
(0 -0.3826701 0.9238851)
(1 0 0)
(0 -0.793358 0.6087554)
(1 0 0)
(0 -0.9914448 0.1305264)
(1 0 0)
(0 -0.923882 0.3826775)
(1 0 0)
(0 -0.6087556 0.7933578)
(1 0 0)
(0 -0.1305343 0.9914438)
(0 0.3826701 0.9238851)
(1 0 0)
(0 0.7933578 0.6087556)
(1 0 0)
(0 0.9914438 0.1305342)
(1 0 0)
(0 0.9238851 -0.3826701)
(1 0 0)
(0 0.6087554 -0.793358)
(1 0 0)
(0 0.1305264 -0.9914448)
(0 -0.3826775 -0.923882)
(1 0 -0)
(0 -0.793358 -0.6087554)
(1 0 -0)
(0 -0.9914448 -0.1305264)
(1 0 -0)
)

// normal volume types

46
(
0
0
0
0
0
0
0
0
0
0
0
0
0
0
0
0
0
0
0
0
0
0
0
0
0
0
0
0
0
0
0
0
0
0
0
0
0
0
0
0
0
0
0
0
0
0
)

// normalDirections

24
(
2(1 -1)
2(1 -1)
2(1 -1)
2(1 -1)
2(1 -1)
2(1 -1)
2(1 -1)
2(1 -1)
2(1 -1)
2(1 -1)
2(1 -1)
2(1 -1)
2(1 -1)
2(1 -1)
2(1 -1)
2(1 -1)
2(1 -1)
2(1 -1)
2(1 -1)
2(1 -1)
2(1 -1)
2(1 -1)
2(1 -1)
2(1 -1)
)

// edgeNormals

24
(
2(0 1)
2(2 3)
2(4 5)
2(6 7)
2(8 9)
2(10 11)
2(12 13)
2(14 15)
2(16 17)
2(18 19)
2(20 21)
2(22 23)
2(24 25)
2(26 27)
2(28 17)
2(29 30)
2(31 32)
2(33 34)
2(35 36)
2(37 38)
2(39 5)
2(40 41)
2(42 43)
2(44 45)
)

// featurePointNormals
0()
// featurePointEdges
0()
// regionEdges
0()


// ************************************************************************* //
